LAMMPS (10 Mar 2016)
package gpu 1
package gpu 1
# bulk Si via Tersoff

#include pak.kokkos

units		metal
atom_style	atomic

lattice		diamond 5.431
Lattice spacing in x,y,z = 5.431 5.431 5.431
region		box block 0 20 0 20 0 10
create_box	1 box
Created orthogonal box = (0 0 0) to (108.62 108.62 54.31)
create_atoms	1 box
Created 32000 atoms

pair_style	tersoff
pair_coeff	* * Si.tersoff Si
mass            1 28.06

velocity	all create 1000.0 376847 loop geom

neighbor	1.0 bin
neigh_modify    delay 5 every 1

fix		1 all nve

timestep	0.001

thermo          100
run		1000000
  0 neighbor list requests
  update every 1 steps, delay 5 steps, check yes
Step Temp E_pair E_mol TotEng Press
0         1000   -148173.22            0   -144037.03    7019.4512
Averages over the last 5001 of 10001 rows, steps 500000 to 1000000:
Temp E_pair E_mol TotEng Press
488.197 -146046 0 -144027 -3036.89
Loop time of 2070.38 on 1 procs for 1000000 steps with 32000 atoms

Please see the log.cite file for references relevant to this simulation
