LAMMPS (10 Mar 2016)
KOKKOS mode is enabled (../kokkos.cpp:36)
package kokkos
# bulk Si via Tersoff

include pak.kokkos
package kokkos neigh half/thread
newton on

units		metal
atom_style	atomic

lattice		diamond 5.431
Lattice spacing in x,y,z = 5.431 5.431 5.431
region		box block 0 20 0 20 0 10
create_box	1 box
Created orthogonal box = (0 0 0) to (108.62 108.62 54.31)
create_atoms	1 box
Created 32000 atoms

pair_style	tersoff
pair_coeff	* * Si.tersoff Si
mass            1 28.06

velocity	all create 1000.0 376847 loop geom

neighbor	1.0 bin
neigh_modify    delay 5 every 1

fix		1 all nve

timestep	0.001

thermo          100
run		1000000
  1 neighbor list requests
  update every 1 steps, delay 5 steps, check yes
Step Temp E_pair E_mol TotEng Press
0         1000   -148173.19            0   -144036.99    7019.4434
Averages over the last 5001 of 10001 rows, steps 500000 to 1000000:
Temp E_pair E_mol TotEng Press
487.37 -146050 0 -144034 -3036.41
Loop time of 3546.13 on 0 procs for 1000000 steps with 32000 atoms
